# generated using pymatgen
data_H6PbCI3N
_symmetry_space_group_name_H-M   Pnma
_cell_length_a   8.55672600
_cell_length_b   12.96365000
_cell_length_c   9.25046000
_cell_angle_alpha   90.00000000
_cell_angle_beta   90.00000000
_cell_angle_gamma   90.00000000
_symmetry_Int_Tables_number   62
_chemical_formula_structural   H6PbCI3N
_chemical_formula_sum   'H24 Pb4 C4 I12 N4'
_cell_volume   1026.12023549
_cell_formula_units_Z   4
loop_
 _symmetry_equiv_pos_site_id
 _symmetry_equiv_pos_as_xyz
  1  'x, y, z'
  2  '-x, -y, -z'
  3  '-x+1/2, -y, z+1/2'
  4  'x+1/2, y, -z+1/2'
  5  'x+1/2, -y+1/2, -z+1/2'
  6  '-x+1/2, y+1/2, z+1/2'
  7  '-x, y+1/2, -z'
  8  'x, -y+1/2, z'
loop_
 _atom_type_symbol
 _atom_type_oxidation_number
  H+  1.0
  Pb2+  2.0
  C2-  -2.0
  I-  -1.0
  N3-  -3.0
loop_
 _atom_site_type_symbol
 _atom_site_label
 _atom_site_symmetry_multiplicity
 _atom_site_fract_x
 _atom_site_fract_y
 _atom_site_fract_z
 _atom_site_occupancy
  H+  H0  8  0.00522500  0.68076100  0.37988900  1
  H+  H1  8  0.00573600  0.68537600  0.64297400  1
  H+  H2  4  0.15984800  0.25000000  0.55033700  1
  H+  H3  4  0.16194100  0.75000000  0.57863200  1
  Pb2+  Pb4  4  0.00000000  0.00000000  0.00000000  1
  C2-  C5  4  0.03235500  0.25000000  0.56216200  1
  I-  I6  8  0.18393400  0.02214700  0.30716100  1
  I-  I7  4  0.03773300  0.25000000  0.98740400  1
  N3-  N8  4  0.04039100  0.75000000  0.58486300  1
